18
Created with the Wolfram Language : www.wolfram.com
C	   2.956734	   0.040635	  -0.305841
C	   1.856754	  -0.233689	   0.406484
C	   0.485409	  -0.388643	  -0.187529
C	  -0.477708	   0.665696	   0.363593
C	  -1.865630	   0.611957	  -0.279472
C	  -2.627271	  -0.668416	   0.026352
H	   3.923055	   0.136289	   0.179798
H	   2.921227	   0.176431	  -1.382278
H	   1.944725	  -0.365476	   1.483184
H	   0.527249	  -0.314978	  -1.280999
H	   0.125460	  -1.395223	   0.052482
H	  -0.574219	   0.552689	   1.450962
H	  -0.059032	   1.665334	   0.188876
H	  -1.778931	   0.734472	  -1.365352
H	  -2.451925	   1.462154	   0.089211
H	  -3.642845	  -0.606549	  -0.377801
H	  -2.701951	  -0.833203	   1.105840
H	  -2.144571	  -1.540097	  -0.424978
