13
Created with the Wolfram Language : www.wolfram.com
C	  -1.575692	  -0.554258	  -0.139807
C	  -0.700793	   0.606569	   0.312313
C	   0.696732	   0.585762	  -0.306427
N	   1.456915	  -0.588078	   0.105503
H	  -2.579770	  -0.455811	   0.285098
H	  -1.670012	  -0.572009	  -1.230269
H	  -1.167594	  -1.515540	   0.187205
H	  -1.192807	   1.546030	   0.033433
H	  -0.628126	   0.601481	   1.406660
H	   1.239337	   1.487363	  -0.001553
H	   0.622662	   0.601731	  -1.399144
H	   2.401742	  -0.528932	  -0.271770
H	   1.553350	  -0.595557	   1.120060
