12
Created with the Wolfram Language : www.wolfram.com
C	  -1.566047	  -0.552684	  -0.136592
C	  -0.709147	   0.627992	   0.297605
C	   0.688574	   0.582047	  -0.304840
O	   1.383154	  -0.562203	   0.170182
H	  -1.667533	  -0.582761	  -1.226140
H	  -1.133966	  -1.501989	   0.195135
H	  -2.568478	  -0.470142	   0.295285
H	  -1.202412	   1.560003	   0.000595
H	  -0.638225	   0.621134	   1.391490
H	   0.643256	   0.538997	  -1.397792
H	   1.252409	   1.473111	  -0.011328
H	   2.267151	  -0.547878	  -0.234591
