18
Created with the Wolfram Language : www.wolfram.com
C	   1.004399	  -1.056870	   0.225782
C	  -0.413077	  -1.398271	  -0.225782
C	  -1.417476	  -0.341399	   0.225783
C	  -1.004399	   1.056870	  -0.225783
C	   0.413077	   1.398270	   0.225784
C	   1.417476	   0.341400	  -0.225783
H	   1.063131	  -1.118669	   1.319463
H	   1.707196	  -1.796381	  -0.174187
H	  -0.437232	  -1.480034	  -1.319463
H	  -0.702115	  -2.376665	   0.174188
H	  -2.409311	  -0.580282	  -0.174187
H	  -1.500362	  -0.361361	   1.319464
H	  -1.707196	   1.796381	   0.174185
H	  -1.063128	   1.118669	  -1.319464
H	   0.437231	   1.480031	   1.319464
H	   0.702117	   2.376665	  -0.174185
H	   2.409311	   0.580283	   0.174185
H	   1.500360	   0.361364	  -1.319464
