20
Created with the Wolfram Language : www.wolfram.com
C	  -2.944754	  -0.541314	   0.118078
C	  -1.817486	   0.404509	  -0.264543
C	  -0.461060	  -0.119538	   0.209137
C	   0.668821	   0.835567	  -0.182016
C	   2.035845	   0.411751	   0.359338
C	   2.545486	  -0.893391	  -0.232183
H	  -3.001492	  -0.664848	   1.204286
H	  -2.799267	  -1.528008	  -0.333145
H	  -3.904749	  -0.147064	  -0.229608
H	  -2.010805	   1.389854	   0.175253
H	  -1.807990	   0.531058	  -1.353409
H	  -0.285982	  -1.108294	  -0.229582
H	  -0.476268	  -0.244847	   1.298542
H	   0.442604	   1.836477	   0.206151
H	   0.717328	   0.924158	  -1.274208
H	   2.759780	   1.203132	   0.130989
H	   1.994726	   0.325899	   1.451395
H	   3.563632	  -1.091726	   0.117982
H	   1.922102	  -1.740651	   0.067878
H	   2.566398	  -0.847915	  -1.325580
